*HEADING
PCBGenius CalculiX verification: axial tension bar (clean deck)
** Canonical ground truth: Hooke's law (same constitutive law validated by the
** official CalculiX Verification Manual cases). A 5 mm x 1 mm x 1 mm elastic
** bar, left end fixed, total axial force F=100 N. Analytic peak elongation:
**     dL = F*L/(E*A) = 100*5 / (200000*1) = 0.0025 mm
** LEVEL: analytic_check (numeric match vs explicit analytic expectation).
**
** Deck NOTES (clean CalculiX 2020 syntax):
**   - No single-asterisk comment/separator lines: a line starting * is a KEYWORD
**     card, so '*   text' or a bare '*' is a fatal 'Card image: *'. Only '**'
**     comment lines are allowed. (This was the fatal the built-image probe saw.)
**   - *HEADING must be first. *NSET defined before the step. *NODE PRINT inside
**     the STEP with the result variable U on its own following line.
**
** Node layout (x: 0..5 in 5 elements, y,z in {0,1}, A=1):
**   x=0 (fixed) : nodes 1..4    x=5 (loaded): nodes 21..24
*NODE
 1, 0.0, 0.0, 0.0
 2, 0.0, 1.0, 0.0
 3, 0.0, 0.0, 1.0
 4, 0.0, 1.0, 1.0
 5, 1.0, 0.0, 0.0
 6, 1.0, 1.0, 0.0
 7, 1.0, 0.0, 1.0
 8, 1.0, 1.0, 1.0
 9, 2.0, 0.0, 0.0
10, 2.0, 1.0, 0.0
11, 2.0, 0.0, 1.0
12, 2.0, 1.0, 1.0
13, 3.0, 0.0, 0.0
14, 3.0, 1.0, 0.0
15, 3.0, 0.0, 1.0
16, 3.0, 1.0, 1.0
17, 4.0, 0.0, 0.0
18, 4.0, 1.0, 0.0
19, 4.0, 0.0, 1.0
20, 4.0, 1.0, 1.0
** ... 4 like lines cut
*ELEMENT, TYPE=C3D8, ELSET=EALL
 1, 1, 2, 3, 4, 5, 6, 7, 8
 2, 5, 6, 7, 8, 9,10,11,12
 3, 9,10,11,12,13,14,15,16
 4,13,14,15,16,17,18,19,20
 5,17,18,19,20,21,22,23,24
*SOLID SECTION, ELSET=EALL, MATERIAL=STEEL
*MATERIAL, NAME=STEEL
*ELASTIC, TYPE=ISO
200000.0, 0.3
*NSET, NSET=EALL
 1,2,3,4,5,6,7,8,9,10,11,12,13,14,15,16
 17,18,19,20,21,22,23,24
*BOUNDARY
** Fix the left face (nodes 1..4) completely.
 1,1,0
 1,2,0
 1,3,0
 2,1,0
 2,2,0
 2,3,0
 3,1,0
 3,2,0
 3,3,0
 4,1,0
 4,2,0
 4,3,0
*CLOAD
** Total 100 N axial pull on the free end face (25 N per node, direction 1 = +x).
21,1,25.0
22,1,25.0
23,1,25.0
24,1,25.0
*STEP
*STATIC
*NODE PRINT, NSET=EALL, FREQUENCY=1
U
*END STEP